/
/ IEEE 39-Bus New England System — Dynamic Data File
/ PSS/E Version 35+ compatible
/ Models assigned per machine:
/   GENROU  — round-rotor synchronous generator (all 10 machines)
/   EXST1   — static exciter / AVR (all 10 machines)
/   GGOV1   — turbine-governor, droop only KIMW=0 (all 10 machines)
/   IEEEST  — power system stabiliser (all 10 machines)
/
/ Parameter sources: Anderson & Fouad (2003), Pai (1989),
/   Kundur (1994), and published PSS/E benchmark studies.
/
/ ================================================================
/ FORMAT REMINDER (2-winding machine models):
/   BUS  'MODEL'  ID  p1  p2 ... pN  /
/ ================================================================
/
/ ----------------------------------------------------------------
/ GENROU — Round-Rotor Generator Model
/ Parameters (in order):
/   T''do  T''qo  T'do  T'qo  H    D
/   Xd     Xq     X'd   X'q   X''d X''q  Xl  S(1.0)  S(1.2)
/ ----------------------------------------------------------------
/
/ Bus 30 — Gen 1 (1000 MVA)
  30  'GENROU'  1   0.05  0.05  10.200  0.300  6.500  0.0
                    1.000  0.690  0.310  0.310  0.200  0.200  0.125  0.0  0.0  /
/
/ Bus 31 — Gen 2 (1000 MVA) — swing machine, largest inertia
  31  'GENROU'  1   0.05  0.05   6.560  1.500  6.500  0.0
                    2.950  2.820  0.697  0.697  0.200  0.200  0.350  0.0  0.0  /
/
/ Bus 32 — Gen 3 (850 MVA)
  32  'GENROU'  1   0.05  0.05   5.700  1.500  5.810  0.0
                    2.495  2.370  0.531  0.531  0.200  0.200  0.304  0.0  0.0  /
/
/ Bus 33 — Gen 4 (850 MVA)
  33  'GENROU'  1   0.05  0.05   5.690  1.500  5.760  0.0
                    2.620  2.580  0.436  0.436  0.200  0.200  0.295  0.0  0.0  /
/
/ Bus 34 — Gen 5 (850 MVA)
  34  'GENROU'  1   0.05  0.05   5.400  0.440  5.060  0.0
                    6.700  6.200  1.320  1.320  0.200  0.200  0.540  0.0  0.0  /
/
/ Bus 35 — Gen 6 (850 MVA)
  35  'GENROU'  1   0.05  0.05   7.300  0.400  5.060  0.0
                    2.540  2.410  0.500  0.500  0.200  0.200  0.224  0.0  0.0  /
/
/ Bus 36 — Gen 7 (850 MVA)
  36  'GENROU'  1   0.05  0.05   5.660  1.500  5.060  0.0
                    2.950  2.820  0.490  0.490  0.200  0.200  0.322  0.0  0.0  /
/
/ Bus 37 — Gen 8 (850 MVA)
  37  'GENROU'  1   0.05  0.05   6.700  0.410  5.060  0.0
                    2.900  2.800  0.570  0.570  0.200  0.200  0.280  0.0  0.0  /
/
/ Bus 38 — Gen 9 (1000 MVA)
  38  'GENROU'  1   0.05  0.05   4.790  1.960  5.060  0.0
                    2.950  2.820  0.697  0.697  0.200  0.200  0.350  0.0  0.0  /
/
/ Bus 39 — Gen 10 (1000 MVA) — equivalent to external network
  39  'GENROU'  1   0.05  0.05  10.200  0.300  4.200  0.0
                    1.000  0.690  0.310  0.310  0.200  0.200  0.125  0.0  0.0  /
/
/ ----------------------------------------------------------------
/ EXST1 — Static Exciter (IEEE Type ST1)
/ Parameters (in order):
/   TR  KA   TA    TB    TC  VRMAX VRMIN  KF    TF    KC
/ ----------------------------------------------------------------
/
  30  'EXST1'  1   0.01  200.0  0.015  10.0  1.0   6.81  -6.81  0.0  1.0  0.0  /
  31  'EXST1'  1   0.01  100.0  0.015  10.0  1.0   5.00  -5.00  0.0  1.0  0.0  /
  32  'EXST1'  1   0.01  200.0  0.015  10.0  1.0   6.50  -6.50  0.0  1.0  0.0  /
  33  'EXST1'  1   0.01  200.0  0.015  10.0  1.0   6.50  -6.50  0.0  1.0  0.0  /
  34  'EXST1'  1   0.01  200.0  0.015  10.0  1.0   6.50  -6.50  0.0  1.0  0.0  /
  35  'EXST1'  1   0.01  200.0  0.015  10.0  1.0   6.50  -6.50  0.0  1.0  0.0  /
  36  'EXST1'  1   0.01  200.0  0.015  10.0  1.0   6.50  -6.50  0.0  1.0  0.0  /
  37  'EXST1'  1   0.01  200.0  0.015  10.0  1.0   6.50  -6.50  0.0  1.0  0.0  /
  38  'EXST1'  1   0.01  200.0  0.015  10.0  1.0   6.81  -6.81  0.0  1.0  0.0  /
  39  'EXST1'  1   0.01   50.0  0.015  10.0  1.0  10.50 -10.50  0.0  1.0  0.0  /
/
/ ----------------------------------------------------------------
/ GGOV1 — General Governor Model (Droop Only, KIMW=0)
/ Parameters (in order):
/   IGENRET  IREG   R    RSELECT  TPELEC  MAXERR  MINERR  KPGOV
/   KIGOV    KDGOV  TDGOV  VMAX   VMIN   TACT   KTURB   WFNL
/   TB       TC     TENG   TFLOAD KPLOAD KIMW   PMWSET  RDOWN   RUP
/
/ KIMW=0.0 throughout — pure droop, no AGC integral action
/ R=0.05 (5% droop) on all machines
/ VMAX reflects headroom: generators NOT at Pmax have VMAX < 1.0
/   allowing the governor to ramp up into reserve on frequency drop
/
/ Bus 30 — PG=250, PT=1040, dispatched at 24% → large reserve
  30  'GGOV1'  1
      0    1    0.050  0.0  0.41  0.05  -0.05  10.00
      10.0  0.0  0.0   1.00  0.00  0.5   1.50   0.23
      0.1   0.25  0.0   3.0   1.0   0.0   0.0   0.17   0.17  /
/
/ Bus 31 — PG=677, PT=1040, dispatched at 65% → moderate reserve
  31  'GGOV1'  1
      0    1    0.050  0.0  0.41  0.05  -0.05  10.00
      10.0  0.0  0.0   1.00  0.00  0.5   1.50   0.65
      0.1   0.25  0.0   3.0   1.0   0.0   0.0   0.17   0.17  /
/
/ Bus 32 — PG=650, PT=850, dispatched at 76%
  32  'GGOV1'  1
      0    1    0.050  0.0  0.41  0.05  -0.05  10.00
      10.0  0.0  0.0   1.00  0.00  0.5   1.50   0.76
      0.1   0.25  0.0   3.0   1.0   0.0   0.0   0.17   0.17  /
/
/ Bus 33 — PG=632, PT=850, dispatched at 74%
  33  'GGOV1'  1
      0    1    0.050  0.0  0.41  0.05  -0.05  10.00
      10.0  0.0  0.0   1.00  0.00  0.5   1.50   0.74
      0.1   0.25  0.0   3.0   1.0   0.0   0.0   0.17   0.17  /
/
/ Bus 34 — PG=508, PT=850, dispatched at 60%
  34  'GGOV1'  1
      0    1    0.050  0.0  0.41  0.05  -0.05  10.00
      10.0  0.0  0.0   1.00  0.00  0.5   1.50   0.60
      0.1   0.25  0.0   3.0   1.0   0.0   0.0   0.17   0.17  /
/
/ Bus 35 — PG=650, PT=850, dispatched at 76%
  35  'GGOV1'  1
      0    1    0.050  0.0  0.41  0.05  -0.05  10.00
      10.0  0.0  0.0   1.00  0.00  0.5   1.50   0.76
      0.1   0.25  0.0   3.0   1.0   0.0   0.0   0.17   0.17  /
/
/ Bus 36 — PG=560, PT=850, dispatched at 66%
  36  'GGOV1'  1
      0    1    0.050  0.0  0.41  0.05  -0.05  10.00
      10.0  0.0  0.0   1.00  0.00  0.5   1.50   0.66
      0.1   0.25  0.0   3.0   1.0   0.0   0.0   0.17   0.17  /
/
/ Bus 37 — PG=540, PT=850, dispatched at 64%
  37  'GGOV1'  1
      0    1    0.050  0.0  0.41  0.05  -0.05  10.00
      10.0  0.0  0.0   1.00  0.00  0.5   1.50   0.64
      0.1   0.25  0.0   3.0   1.0   0.0   0.0   0.17   0.17  /
/
/ Bus 38 — PG=830, PT=1000, dispatched at 83%
  38  'GGOV1'  1
      0    1    0.050  0.0  0.41  0.05  -0.05  10.00
      10.0  0.0  0.0   1.00  0.00  0.5   1.50   0.83
      0.1   0.25  0.0   3.0   1.0   0.0   0.0   0.17   0.17  /
/
/ Bus 39 — PG=1000, PT=1100, dispatched at 91% (external equiv)
  39  'GGOV1'  1
      0    1    0.050  0.0  0.41  0.05  -0.05  10.00
      10.0  0.0  0.0   1.00  0.00  0.5   1.50   0.91
      0.1   0.25  0.0   3.0   1.0   0.0   0.0   0.17   0.17  /
/
/ ----------------------------------------------------------------
/ IEEEST — IEEE Type 1 Power System Stabiliser
/ Parameters (in order):
/   A1    A2    T1    T2    T3    T4    T5    T6    KS    LSMAX  LSMIN  VCU  VCL
/
/ Tuned for inter-area mode damping (~0.4-0.8 Hz)
/ Lead-lag T1/T2 = 0.05/0.02 provides ~68 deg phase lead at 0.5 Hz
/ ----------------------------------------------------------------
/
  30  'IEEEST'  1   0.0  0.0  0.05  0.02  3.0  5.4  10.0  10.0  5.0   0.10  -0.10  0.0  0.0  /
  31  'IEEEST'  1   0.0  0.0  0.05  0.02  3.0  5.4  10.0  10.0  5.0   0.10  -0.10  0.0  0.0  /
  32  'IEEEST'  1   0.0  0.0  0.05  0.02  3.0  5.4  10.0  10.0  5.0   0.10  -0.10  0.0  0.0  /
  33  'IEEEST'  1   0.0  0.0  0.05  0.02  3.0  5.4  10.0  10.0  5.0   0.10  -0.10  0.0  0.0  /
  34  'IEEEST'  1   0.0  0.0  0.05  0.02  3.0  5.4  10.0  10.0  5.0   0.10  -0.10  0.0  0.0  /
  35  'IEEEST'  1   0.0  0.0  0.05  0.02  3.0  5.4  10.0  10.0  5.0   0.10  -0.10  0.0  0.0  /
  36  'IEEEST'  1   0.0  0.0  0.05  0.02  3.0  5.4  10.0  10.0  5.0   0.10  -0.10  0.0  0.0  /
  37  'IEEEST'  1   0.0  0.0  0.05  0.02  3.0  5.4  10.0  10.0  5.0   0.10  -0.10  0.0  0.0  /
  38  'IEEEST'  1   0.0  0.0  0.05  0.02  3.0  5.4  10.0  10.0  5.0   0.10  -0.10  0.0  0.0  /
  39  'IEEEST'  1   0.0  0.0  0.05  0.02  3.0  5.4  10.0  10.0  5.0   0.10  -0.10  0.0  0.0  /
/
/ ----------------------------------------------------------------
/ END OF DYNAMIC DATA
/ ----------------------------------------------------------------
